OPT_V9/Results/My_campus_w_initial_sub_3_active_27_03_13_05/powerflow_results_t6.txt
Pandapower Network Debug Info
==================================================

BUS:
       vm_pu  va_degree      p_mw    q_mvar
0   1.052679  -4.145226  0.000963 -0.162035
1   1.019130  -0.411440 -0.010223 -0.016540
2   0.946664  10.073565 -0.101802  0.075512
3   1.044431  -1.533546  0.002457 -0.081237
4   0.987895   1.072400 -0.009011  0.006337
5   1.050249  -4.849135  0.001971 -0.099225
6   0.967531   1.128148 -0.002200  0.020010
7   0.964023   4.858931 -0.085966  0.085293
8   0.955183   2.320199  0.001865  0.035923
9   0.999503   0.006224  0.009418  0.160093
10  0.999190   0.019747  0.003800  0.499440
11  0.999478  -0.007117  0.216249  0.019385
12  0.991001  -0.080731  1.007954  1.006527
13  0.990895  -0.035548  0.010227  1.009945
14  0.990754  -0.085981  1.011966  1.014022
15  0.999591   0.004278  0.000000  0.000000
16  0.999592   0.004192  0.000000  0.000000
17  0.999993   0.000569  0.000000  0.000000
18  0.999993   0.000569  0.000000  0.000000
19  0.991793  -0.063550  0.000000  0.000000
20  0.991794  -0.063511  0.000000  0.000000
21  0.999992   0.000627  0.000000  0.000000
22  0.999992   0.000627  0.000000  0.000000
23  1.000000   0.000000 -2.110794 -3.665208
24  0.999995   0.000525  0.000000  0.000000
--------------------------------------------------

LINE:
    p_from_mw  q_from_mvar   p_to_mw  q_to_mvar         pl_mw       ql_mvar  i_from_ka   i_to_ka      i_ka  vm_from_pu  va_from_degree  vm_to_pu  va_to_degree  loading_percent
0    0.144408     0.530332 -0.144315  -0.530128  9.302283e-05  2.046287e-04   0.021156  0.021156  0.021156    0.999995        0.000525  0.999591      0.004278         3.991667
1    0.000010     0.001000 -0.000010  -0.001000  7.925236e-10  1.743369e-09   0.000038  0.000038  0.000038    0.999995        0.000525  0.999993      0.000569         0.007262
2    1.966311     3.128876 -1.953652  -3.101030  1.265858e-02  2.784596e-02   0.142238  0.142238  0.142238    0.999995        0.000525  0.991793     -0.063550        26.837381
3    0.000010     0.001000 -0.000010  -0.001000  1.814953e-09  2.656029e-09   0.000038  0.000038  0.000038    0.999995        0.000525  0.999992      0.000627         0.011321
4    0.009424     0.160107 -0.009418  -0.160093  6.266739e-06  1.378538e-05   0.006176  0.006176  0.006176    0.999591        0.004278  0.999503      0.006224         1.165227
5    0.003936     0.499639 -0.003800  -0.499440  1.364227e-04  1.996430e-04   0.019240  0.019240  0.019240    0.999591        0.004278  0.999190      0.019747         5.658704
6    0.216269     0.019430 -0.216249  -0.019385  2.054833e-05  4.520157e-05   0.008361  0.008361  0.008361    0.999591        0.004278  0.999478     -0.007117         1.577576
7    1.008457     1.007633 -1.007954  -1.006527  5.029369e-04  1.106345e-03   0.055325  0.055325  0.055325    0.991793       -0.063550  0.991001     -0.080731        10.438697
8    0.010730     1.010855 -0.010227  -1.009945  5.033021e-04  9.096377e-04   0.039232  0.039232  0.039232    0.991793       -0.063550  0.990895     -0.035548         8.528696
9    1.012630     1.015482 -1.011966  -1.014022  6.635944e-04  1.459754e-03   0.055655  0.055655  0.055655    0.991793       -0.063550  0.990754     -0.085981        10.500952
10   0.012045    -0.153394 -0.000963   0.162035  1.108229e-02  8.641042e-03   0.222178  0.222178  0.222178    0.999592        0.004192  1.052679     -4.145226        96.599084
11  -0.009909    -0.016295  0.010223   0.016540  3.139320e-04  2.447780e-04   0.027538  0.027538  0.027538    0.999592        0.004192  1.019130     -0.411440        11.973094
12  -0.091897     0.097300  0.101802  -0.075512  9.904670e-03  2.178799e-02   0.193256  0.193256  0.193256    0.999592        0.004192  0.946664     10.073565        36.463440
13   0.004437    -0.077658 -0.002457   0.081237  1.980107e-03  3.578726e-03   0.112318  0.112318  0.112318    0.999592        0.004192  1.044431     -1.533546        24.416984
14  -0.008919     0.006540  0.009011  -0.006337  9.232743e-05  2.030990e-04   0.016095  0.016095  0.016095    0.991794       -0.063511  0.987895      1.072400         3.036792
15   0.009673    -0.093220 -0.001971   0.099225  7.701174e-03  6.004732e-03   0.136394  0.136394  0.136394    0.991794       -0.063511  1.050249     -4.849135        59.301688
16  -0.001828     0.020554  0.002200  -0.020010  3.719001e-04  5.442440e-04   0.030031  0.030031  0.030031    0.991794       -0.063511  0.967531      1.128148         8.832541
17  -0.080587     0.095015  0.085966  -0.085293  5.379367e-03  9.722343e-03   0.181315  0.181315  0.181315    0.991794       -0.063511  0.964023      4.858931        39.416251
18   0.003486     0.037187 -0.001865  -0.035923  1.621187e-03  1.264066e-03   0.054357  0.054357  0.054357    0.991794       -0.063511  0.955183      2.320199        23.633456
--------------------------------------------------

TRAFO:
    p_hv_mw  q_hv_mvar       p_lv_mw     q_lv_mvar     pl_mw   ql_mvar   i_hv_ka       i_lv_ka  vm_hv_pu  va_hv_degree  vm_lv_pu  va_lv_degree  loading_percent
0 -0.085314  -0.149048  8.532466e-02  1.500472e-01  0.000010  0.000999  0.006613  2.492439e-01  0.999591      0.004278  0.999592      0.004192         1.726812
1  0.000010   0.001000  1.455181e-11  1.446178e-16  0.000010  0.001000  0.000038  2.100388e-11  0.999993      0.000569  0.999993      0.000569         0.010000
2 -0.078164   0.067059  7.817444e-02 -6.607577e-02  0.000010  0.000984  0.003997  1.489642e-01  0.991793     -0.063550  0.991794     -0.063511         1.038408
3  0.000010   0.001000 -1.455180e-11  5.067660e-16  0.000010  0.001000  0.000038  2.100388e-11  0.999992      0.000627  0.999992      0.000627         0.010000
4  2.110794   3.665208 -2.110739e+00 -3.661208e+00  0.000055  0.004000  0.034885  1.626623e-01  1.000000      0.000000  0.999995      0.000525        10.573906
--------------------------------------------------
